 16
-234.541453 -234.575358 -234.648273
C -0.416349 -1.446433 0.602772
C -1.264682 -0.774131 -0.257411
C -1.287910 0.627985 -0.369150
C -0.404644 1.422803 0.346084
C 1.701608 -0.594263 0.045613
C 1.521134 0.699411 -0.417947
H -1.786239 -1.350808 -1.021226
H -0.133165 -1.034674 1.564262
H -0.330982 -2.527741 0.529993
H 2.140607 -0.753414 1.027580
H 1.766620 -1.434535 -0.635028
H 1.313247 0.852508 -1.472116
H 1.999302 1.536390 0.082937
H -0.384521 2.498778 0.189490
H -0.081972 1.107824 1.332539
H -1.844121 1.068746 -1.195097

